<?xml version="1.0" encoding="UTF-8"?>

<!-- generated on 2023-11-25 22:00:00 by Eclipse SUMO netedit Version 1.19.0
<configuration xmlns:xsi="http://www.w3.org/2001/XMLSchema-instance" xsi:noNamespaceSchemaLocation="http://sumo.dlr.de/xsd/neteditConfiguration.xsd">

    <input>
        <sumocfg-file value="C:\Users\kpanc\Desktop\GUI\DQN\Sj_Maps\Sjdt.sumocfg"/>
        <sumo-net-file value="C:\Users\kpanc\Desktop\GUI\DQN\Sj_Maps\Sjdt.net.xml"/>
    </input>

    <output>
        <output-file value="C:\Users\kpanc\Desktop\GUI\DQN\Sj_Maps\Sjdt.net.xml"/>
        <output.street-names value="true"/>
    </output>

    <processing>
        <geometry.min-radius.fix.railways value="false"/>
        <geometry.max-grade.fix value="false"/>
        <offset.disable-normalization value="true"/>
        <lefthand value="0"/>
    </processing>

    <junctions>
        <no-turnarounds value="true"/>
        <junctions.corner-detail value="5"/>
        <junctions.limit-turn-speed value="5.50"/>
        <rectangular-lane-cut value="0"/>
    </junctions>

    <pedestrian>
        <walkingareas value="0"/>
    </pedestrian>

</configuration>
-->

<net version="1.16" junctionCornerDetail="5" limitTurnSpeed="5.50" xmlns:xsi="http://www.w3.org/2001/XMLSchema-instance" xsi:noNamespaceSchemaLocation="http://sumo.dlr.de/xsd/net_file.xsd">

    <location netOffset="13568753.62,-4484974.56" convBoundary="0.00,0.00,2434.74,2912.66" origBoundary="-121.890188,37.328355,-121.868316,37.349157" projParameter="+proj=merc +a=6378137 +b=6378137 +lat_ts=0.0 +lon_0=0.0 +x_0=0.0 +y_0=0 +k=1.0 +units=m +nadgrids=@null +wktext +no_defs"/>

    <type id="highway.primary" priority="12" numLanes="2" speed="27.78" disallow="tram rail_urban rail rail_electric rail_fast ship" oneway="0"/>
    <type id="highway.residential" priority="3" numLanes="1" speed="13.89" disallow="tram rail_urban rail rail_electric rail_fast ship" oneway="0"/>
    <type id="highway.secondary" priority="11" numLanes="1" speed="27.78" disallow="tram rail_urban rail rail_electric rail_fast ship" oneway="0"/>
    <type id="highway.secondary_link" priority="6" numLanes="1" speed="22.22" disallow="tram rail_urban rail rail_electric rail_fast ship" oneway="0"/>
    <type id="highway.tertiary" priority="10" numLanes="1" speed="22.22" disallow="tram rail_urban rail rail_electric rail_fast ship" oneway="0"/>

    <edge id=":2088100893_0" function="internal">
        <lane id=":2088100893_0_0" index="0" disallow="tram rail_urban rail rail_electric rail_fast ship" speed="3.65" length="4.67" shape="1842.51,67.32 1843.81,66.70 1844.70,66.77 1845.18,67.52 1845.25,68.96"/>
    </edge>
    <edge id=":281149293_0" function="internal">
        <lane id=":281149293_0_0" index="0" disallow="tram rail_urban rail rail_electric rail_fast ship" speed="27.78" length="17.87" shape="464.92,1055.01 460.21,1051.60 456.98,1048.37 454.39,1045.51 451.57,1043.22"/>
    </edge>
    <edge id=":281149293_1" function="internal">
        <lane id=":281149293_1_0" index="0" disallow="tram rail_urban rail rail_electric rail_fast ship" speed="8.10" length="15.23" shape="466.57,1052.26 464.25,1050.02 463.53,1047.04 464.42,1043.32 466.91,1038.85"/>
    </edge>
    <edge id=":281149293_2" function="internal">
        <lane id=":281149293_2_0" index="0" disallow="tram rail_urban rail rail_electric rail_fast ship" speed="3.65" length="4.67" shape="466.57,1052.26 465.95,1050.96 466.01,1050.07 466.77,1049.59 468.21,1049.52"/>
    </edge>
    <edge id=":281149293_3" function="internal">
        <lane id=":281149293_3_0" index="0" disallow="tram rail_urban rail rail_electric rail_fast ship" speed="7.10" length="10.54" shape="454.90,1037.75 457.84,1039.14 460.38,1039.49 462.52,1038.79 464.27,1037.05"/>
    </edge>
    <edge id=":281149293_4" function="internal">
        <lane id=":281149293_4_0" index="0" disallow="tram rail_urban rail rail_electric rail_fast ship" speed="27.78" length="17.83" shape="454.90,1037.75 459.57,1041.18 462.79,1044.40 465.39,1047.25 468.21,1049.52"/>
    </edge>
    <edge id=":281149293_5" function="internal">
        <lane id=":281149293_5_0" index="0" disallow="tram rail_urban rail rail_electric rail_fast ship" speed="3.65" length="1.44" shape="453.24,1040.48 453.85,1041.79"/>
    </edge>
    <edge id=":281149293_10" function="internal">
        <lane id=":281149293_10_0" index="0" disallow="tram rail_urban rail rail_electric rail_fast ship" speed="3.65" length="3.23" shape="453.85,1041.79 453.77,1042.68 453.01,1043.16 451.57,1043.22"/>
    </edge>
    <edge id=":281149293_6" function="internal">
        <lane id=":281149293_6_0" index="0" disallow="tram rail_urban rail rail_electric rail_fast ship" speed="7.37" length="11.72" shape="451.81,1053.68 453.47,1050.18 453.99,1047.27 453.35,1044.95 451.57,1043.22"/>
    </edge>
    <edge id=":281149293_7" function="internal">
        <lane id=":281149293_7_0" index="0" disallow="tram rail_urban rail rail_electric rail_fast ship" speed="11.18" length="20.70" shape="451.81,1053.68 455.19,1048.47 457.90,1045.11 460.69,1041.88 464.27,1037.05"/>
        <lane id=":281149293_7_1" index="1" disallow="tram rail_urban rail rail_electric rail_fast ship" speed="11.18" length="20.70" shape="454.56,1055.31 457.90,1050.16 460.58,1046.86 463.34,1043.66 466.91,1038.85"/>
    </edge>
    <edge id=":281149293_9" function="internal">
        <lane id=":281149293_9_0" index="0" disallow="tram rail_urban rail rail_electric rail_fast ship" speed="8.07" length="14.52" shape="457.32,1056.94 460.27,1052.61 463.08,1049.93 465.72,1048.90 468.21,1049.52"/>
    </edge>
    <edge id=":281149294_0" function="internal">
        <lane id=":281149294_0_0" index="0" disallow="tram rail_urban rail rail_electric rail_fast ship" speed="8.94" length="17.73" shape="824.84,450.16 809.29,441.65"/>
    </edge>
    <edge id=":281149294_1" function="internal">
        <lane id=":281149294_1_0" index="0" disallow="tram rail_urban rail rail_electric rail_fast ship" speed="7.33" length="2.51" shape="824.84,450.16 823.02,448.43"/>
    </edge>
    <edge id=":281149294_2" function="internal">
        <lane id=":281149294_2_0" index="0" disallow="tram rail_urban rail rail_electric rail_fast ship" speed="3.65" length="1.44" shape="824.84,450.16 824.22,448.86"/>
    </edge>
    <edge id=":281149294_11" function="internal">
        <lane id=":281149294_11_0" index="0" disallow="tram rail_urban rail rail_electric rail_fast ship" speed="7.33" length="9.21" shape="823.02,448.43 822.36,446.12 822.87,443.22 824.53,439.73"/>
    </edge>
    <edge id=":281149294_12" function="internal">
        <lane id=":281149294_12_0" index="0" disallow="tram rail_urban rail rail_electric rail_fast ship" speed="3.65" length="3.23" shape="824.22,448.86 824.29,447.96 825.04,447.48 826.48,447.41"/>
    </edge>
    <edge id=":281149294_3" function="internal">
        <lane id=":281149294_3_0" index="0" disallow="tram rail_urban rail rail_electric rail_fast ship" speed="6.87" length="9.72" shape="810.71,438.78 813.22,439.67 815.45,439.58 817.38,438.51 819.03,436.46"/>
    </edge>
    <edge id=":281149294_4" function="internal">
        <lane id=":281149294_4_0" index="0" disallow="tram rail_urban rail rail_electric rail_fast ship" speed="8.94" length="17.98" shape="810.71,438.78 826.48,447.41"/>
    </edge>
    <edge id=":281149294_5" function="internal">
        <lane id=":281149294_5_0" index="0" disallow="tram rail_urban rail rail_electric rail_fast ship" speed="3.65" length="1.44" shape="810.71,438.78 811.43,440.03"/>
    </edge>
    <edge id=":281149294_13" function="internal">
        <lane id=":281149294_13_0" index="0" disallow="tram rail_urban rail rail_electric rail_fast ship" speed="3.65" length="3.23" shape="811.43,440.03 811.43,440.93 810.72,441.47 809.29,441.65"/>
    </edge>
    <edge id=":281149294_6" function="internal">
        <lane id=":281149294_6_0" index="0" disallow="tram rail_urban rail rail_electric rail_fast ship" speed="6.37" length="9.03" shape="811.46,449.15 812.42,446.85 812.38,444.84 811.33,443.11 809.29,441.65"/>
    </edge>
    <edge id=":281149294_7" function="internal">
        <lane id=":281149294_7_0" index="0" disallow="tram rail_urban rail rail_electric rail_fast ship" speed="11.18" length="14.78" shape="811.46,449.15 819.03,436.46"/>
        <lane id=":281149294_7_1" index="1" disallow="tram rail_urban rail rail_electric rail_fast ship" speed="11.18" length="14.78" shape="814.20,450.79 821.78,438.10"/>
        <lane id=":281149294_7_2" index="2" disallow="tram rail_urban rail rail_electric rail_fast ship" speed="11.18" length="14.78" shape="816.95,452.44 824.53,439.73"/>
    </edge>
    <edge id=":281149294_10" function="internal">
        <lane id=":281149294_10_0" index="0" disallow="tram rail_urban rail rail_electric rail_fast ship" speed="7.43" length="12.08" shape="816.95,452.44 819.32,449.16 821.70,447.24 824.09,446.65 826.48,447.41"/>
    </edge>
    <edge id=":281149295_0" function="internal">
        <lane id=":281149295_0_0" index="0" disallow="tram rail_urban rail rail_electric rail_fast ship" speed="8.94" length="14.60" shape="1533.67,873.71 1521.41,865.78"/>
    </edge>
    <edge id=":281149295_1" function="internal">
        <lane id=":281149295_1_0" index="0" disallow="tram rail_urban rail rail_electric rail_fast ship" speed="7.66" length="2.62" shape="1533.67,873.71 1531.88,871.79"/>
    </edge>
    <edge id=":281149295_2" function="internal">
        <lane id=":281149295_2_0" index="0" disallow="tram rail_urban rail rail_electric rail_fast ship" speed="3.65" length="1.44" shape="1533.67,873.71 1533.14,872.37"/>
    </edge>
    <edge id=":281149295_10" function="internal">
        <lane id=":281149295_10_0" index="0" disallow="tram rail_urban rail rail_electric rail_fast ship" speed="7.66" length="9.58" shape="1531.88,871.79 1531.26,869.32 1531.79,866.30 1533.48,862.72"/>
    </edge>
    <edge id=":281149295_11" function="internal">
        <lane id=":281149295_11_0" index="0" disallow="tram rail_urban rail rail_electric rail_fast ship" speed="3.65" length="3.23" shape="1533.14,872.37 1533.26,871.48 1534.05,871.05 1535.49,871.07"/>
    </edge>
    <edge id=":281149295_3" function="internal">
        <lane id=":281149295_3_0" index="0" disallow="tram rail_urban rail rail_electric rail_fast ship" speed="6.49" length="9.03" shape="1523.06,863.04 1525.34,864.00 1527.38,864.00 1529.17,863.03 1530.72,861.10"/>
    </edge>
    <edge id=":281149295_4" function="internal">
        <lane id=":281149295_4_0" index="0" disallow="tram rail_urban rail rail_electric rail_fast ship" speed="8.94" length="14.80" shape="1523.06,863.04 1535.49,871.07"/>
    </edge>
    <edge id=":281149295_5" function="internal">
        <lane id=":281149295_5_0" index="0" disallow="tram rail_urban rail rail_electric rail_fast ship" speed="3.65" length="1.44" shape="1523.06,863.04 1523.68,864.34"/>
    </edge>
    <edge id=":281149295_12" function="internal">
        <lane id=":281149295_12_0" index="0" disallow="tram rail_urban rail rail_electric rail_fast ship" speed="3.65" length="3.23" shape="1523.68,864.34 1523.61,865.24 1522.85,865.71 1521.41,865.78"/>
    </edge>
    <edge id=":281149295_6" function="internal">
        <lane id=":281149295_6_0" index="0" disallow="tram rail_urban rail rail_electric rail_fast ship" speed="6.67" length="9.38" shape="1523.32,873.82 1524.30,871.40 1524.31,869.25 1523.35,867.38 1521.41,865.78"/>
    </edge>
    <edge id=":281149295_7" function="internal">
        <lane id=":281149295_7_0" index="0" disallow="tram rail_urban rail rail_electric rail_fast ship" speed="13.41" length="14.71" shape="1523.32,873.82 1530.72,861.10"/>
        <lane id=":281149295_7_1" index="1" disallow="tram rail_urban rail rail_electric rail_fast ship" speed="13.41" length="14.71" shape="1526.09,875.42 1533.48,862.72"/>
    </edge>
    <edge id=":281149295_9" function="internal">
        <lane id=":281149295_9_0" index="0" disallow="tram rail_urban rail rail_electric rail_fast ship" speed="7.17" length="11.88" shape="1526.09,875.42 1528.35,872.24 1530.67,870.45 1533.05,870.07 1535.49,871.07"/>
    </edge>
    <edge id=":281363137_0" function="internal">
        <lane id=":281363137_0_0" index="0" disallow="tram rail_urban rail rail_electric rail_fast ship" speed="3.65" length="4.67" shape="503.92,1248.94 502.60,1249.53 501.71,1249.45 501.25,1248.69 501.20,1247.24"/>
    </edge>
    <edge id=":3035992973_0" function="internal">
        <lane id=":3035992973_0_0" index="0" disallow="tram rail_urban rail rail_electric rail_fast ship" speed="13.89" length="4.88" shape="1142.90,721.19 1142.39,722.51 1142.37,723.53 1142.37,724.56 1141.93,725.90"/>
    </edge>
    <edge id=":3035992973_1" function="internal">
        <lane id=":3035992973_1_0" index="0" disallow="tram rail_urban rail rail_electric rail_fast ship" speed="6.89" length="2.33" shape="1136.15,718.99 1134.59,716.39"/>
        <lane id=":3035992973_1_1" index="1" disallow="tram rail_urban rail rail_electric rail_fast ship" speed="5.24" length="2.33" shape="1136.15,718.99 1136.59,718.81 1136.88,718.63 1137.10,718.39 1137.36,717.99"/>
    </edge>
    <edge id=":3035992973_3" function="internal">
        <lane id=":3035992973_3_0" index="0" disallow="tram rail_urban rail rail_electric rail_fast ship" speed="6.64" length="14.58" shape="1136.15,718.99 1140.95,717.56 1143.52,718.23 1143.85,721.01 1142.35,724.84"/>
    </edge>
    <edge id=":3035992973_4" function="internal">
        <lane id=":3035992973_4_0" index="0" disallow="tram rail_urban rail rail_electric rail_fast ship" speed="6.64" length="1.14" shape="1142.35,724.84 1141.93,725.90"/>
    </edge>
    <edge id=":312134716_0" function="internal">
        <lane id=":312134716_0_0" index="0" disallow="tram rail_urban rail rail_electric rail_fast ship" speed="3.65" length="4.67" shape="2156.49,1673.67 2157.00,1675.02 2156.86,1675.90 2156.07,1676.32 2154.63,1676.27"/>
    </edge>
    <edge id=":3413840674_0" function="internal">
        <lane id=":3413840674_0_0" index="0" disallow="tram rail_urban rail rail_electric rail_fast ship" speed="8.94" length="8.03" shape="402.28,1366.28 395.32,1362.25"/>
        <lane id=":3413840674_0_1" index="1" disallow="tram rail_urban rail rail_electric rail_fast ship" speed="8.94" length="8.03" shape="403.87,1363.51 396.94,1359.49"/>
    </edge>
    <edge id=":3413840674_2" function="internal">
        <lane id=":3413840674_2_0" index="0" disallow="tram rail_urban rail rail_electric rail_fast ship" speed="8.94" length="8.51" shape="400.17,1353.96 402.53,1354.77 404.40,1354.58 406.27,1354.39 408.65,1355.18"/>
        <lane id=":3413840674_2_1" index="1" disallow="tram rail_urban rail rail_electric rail_fast ship" speed="8.94" length="8.51" shape="398.55,1356.72 400.92,1357.53 402.80,1357.35 404.68,1357.16 407.05,1357.95"/>
        <lane id=":3413840674_2_2" index="2" disallow="tram rail_urban rail rail_electric rail_fast ship" speed="8.94" length="8.51" shape="398.55,1356.72 405.46,1360.73"/>
    </edge>
    <edge id=":3560113809_0" function="internal">
        <lane id=":3560113809_0_0" index="0" disallow="tram rail_urban rail rail_electric rail_fast ship" speed="12.01" length="5.58" shape="1932.44,556.41 1931.01,555.58 1929.99,555.03 1928.91,554.72 1927.28,554.59"/>
    </edge>
    <edge id=":3560113809_1" function="internal">
        <lane id=":3560113809_1_0" index="0" disallow="tram rail_urban rail rail_electric rail_fast ship" speed="3.65" length="1.44" shape="1932.44,556.41 1931.79,555.13"/>
    </edge>
    <edge id=":3560113809_4" function="internal">
        <lane id=":3560113809_4_0" index="0" disallow="tram rail_urban rail rail_electric rail_fast ship" speed="3.65" length="3.23" shape="1931.79,555.13 1931.83,554.24 1932.56,553.73 1934.00,553.62"/>
    </edge>
    <edge id=":3560113809_2" function="internal">
        <lane id=":3560113809_2_0" index="0" disallow="tram rail_urban rail rail_electric rail_fast ship" speed="7.22" length="4.34" shape="1931.38,550.38 1931.79,551.59 1932.24,552.37 1932.91,552.96 1934.00,553.62"/>
    </edge>
    <edge id=":3560113809_3" function="internal">
        <lane id=":3560113809_3_0" index="0" disallow="tram rail_urban rail rail_electric rail_fast ship" speed="5.39" length="3.25" shape="1931.38,550.38 1931.63,552.28 1931.08,553.50"/>
    </edge>
    <edge id=":3560113809_5" function="internal">
        <lane id=":3560113809_5_0" index="0" disallow="tram rail_urban rail rail_electric rail_fast ship" speed="5.39" length="4.08" shape="1931.08,553.50 1931.03,553.61 1929.58,554.38 1927.28,554.59"/>
    </edge>
    <edge id=":3614216318_0" function="internal">
        <lane id=":3614216318_0_0" index="0" disallow="tram rail_urban rail rail_electric rail_fast ship" speed="6.51" length="8.85" shape="586.62,1123.48 584.38,1122.57 582.37,1122.58 580.59,1123.51 579.04,1125.37"/>
    </edge>
    <edge id=":3614216318_1" function="internal">
        <lane id=":3614216318_1_0" index="0" disallow="tram rail_urban rail rail_electric rail_fast ship" speed="3.65" length="1.44" shape="586.62,1123.48 585.98,1122.18"/>
    </edge>
    <edge id=":3614216318_6" function="internal">
        <lane id=":3614216318_6_0" index="0" disallow="tram rail_urban rail rail_electric rail_fast ship" speed="3.65" length="3.23" shape="585.98,1122.18 586.04,1121.29 586.79,1120.80 588.23,1120.71"/>
    </edge>
    <edge id=":3614216318_2" function="internal">
        <lane id=":3614216318_2_0" index="0" disallow="tram rail_urban rail rail_electric rail_fast ship" speed="27.78" length="14.08" shape="576.08,1113.58 588.23,1120.71"/>
    </edge>
    <edge id=":3614216318_3" function="internal">
        <lane id=":3614216318_3_0" index="0" disallow="tram rail_urban rail rail_electric rail_fast ship" speed="7.88" length="10.12" shape="576.08,1113.58 579.08,1115.98 580.58,1118.75 580.56,1121.88"/>
    </edge>
    <edge id=":3614216318_7" function="internal">
        <lane id=":3614216318_7_0" index="0" disallow="tram rail_urban rail rail_electric rail_fast ship" speed="7.88" length="3.81" shape="580.56,1121.88 579.04,1125.37"/>
    </edge>
    <edge id=":3614216318_4" function="internal">
        <lane id=":3614216318_4_0" index="0" disallow="tram rail_urban rail rail_electric rail_fast ship" speed="8.01" length="13.91" shape="576.32,1123.68 578.76,1120.77 581.55,1119.30 584.71,1119.28 588.23,1120.71"/>
    </edge>
    <edge id=":3614216318_5" function="internal">
        <lane id=":3614216318_5_0" index="0" disallow="tram rail_urban rail rail_electric rail_fast ship" speed="3.65" length="4.67" shape="576.32,1123.68 577.63,1123.08 578.52,1123.16 578.99,1123.93 579.04,1125.37"/>
    </edge>
    <edge id=":3614216320_0" function="internal">
        <lane id=":3614216320_0_0" index="0" disallow="tram rail_urban rail rail_electric rail_fast ship" speed="6.46" length="9.03" shape="707.06,1194.10 704.75,1193.18 702.72,1193.23 700.96,1194.26 699.48,1196.25"/>
    </edge>
    <edge id=":3614216320_1" function="internal">
        <lane id=":3614216320_1_0" index="0" disallow="tram rail_urban rail rail_electric rail_fast ship" speed="27.78" length="14.38" shape="707.06,1194.10 694.62,1186.87"/>
    </edge>
    <edge id=":3614216320_2" function="internal">
        <lane id=":3614216320_2_0" index="0" disallow="tram rail_urban rail rail_electric rail_fast ship" speed="3.65" length="1.44" shape="707.06,1194.10 706.41,1192.80"/>
    </edge>
    <edge id=":3614216320_9" function="internal">
        <lane id=":3614216320_9_0" index="0" disallow="tram rail_urban rail rail_electric rail_fast ship" speed="3.65" length="3.23" shape="706.41,1192.80 706.46,1191.91 707.21,1191.42 708.65,1191.32"/>
    </edge>
    <edge id=":3614216320_3" function="internal">
        <lane id=":3614216320_3_0" index="0" disallow="tram rail_urban rail rail_electric rail_fast ship" speed="27.78" length="14.76" shape="697.87,1181.36 701.61,1184.14 704.00,1186.80 706.02,1189.24 708.65,1191.32"/>
    </edge>
    <edge id=":3614216320_4" function="internal">
        <lane id=":3614216320_4_0" index="0" disallow="tram rail_urban rail rail_electric rail_fast ship" speed="8.11" length="3.97" shape="696.25,1184.11 699.24,1186.51 699.30,1186.63"/>
    </edge>
    <edge id=":3614216320_5" function="internal">
        <lane id=":3614216320_5_0" index="0" disallow="tram rail_urban rail rail_electric rail_fast ship" speed="3.65" length="1.44" shape="696.25,1184.11 696.87,1185.41"/>
    </edge>
    <edge id=":3614216320_10" function="internal">
        <lane id=":3614216320_10_0" index="0" disallow="tram rail_urban rail rail_electric rail_fast ship" speed="8.11" length="10.24" shape="699.30,1186.63 700.77,1189.34 700.85,1192.58 699.48,1196.25"/>
    </edge>
    <edge id=":3614216320_11" function="internal">
        <lane id=":3614216320_11_0" index="0" disallow="tram rail_urban rail rail_electric rail_fast ship" speed="3.65" length="3.23" shape="696.87,1185.41 696.81,1186.30 696.06,1186.79 694.62,1186.87"/>
    </edge>
    <edge id=":3614216320_6" function="internal">
        <lane id=":3614216320_6_0" index="0" disallow="tram rail_urban rail rail_electric rail_fast ship" speed="6.64" length="9.18" shape="696.67,1194.72 697.56,1192.34 697.52,1190.24 696.54,1188.42 694.62,1186.87"/>
    </edge>
    <edge id=":3614216320_7" function="internal">
        <lane id=":3614216320_7_0" index="0" disallow="tram rail_urban rail rail_electric rail_fast ship" speed="7.96" length="14.28" shape="696.67,1194.72 699.01,1191.57 701.79,1189.95 705.00,1189.87 708.65,1191.32"/>
    </edge>
    <edge id=":3614216320_8" function="internal">
        <lane id=":3614216320_8_0" index="0" disallow="tram rail_urban rail rail_electric rail_fast ship" speed="3.65" length="4.67" shape="696.67,1194.72 697.94,1194.05 698.83,1194.08 699.35,1194.81 699.48,1196.25"/>
    </edge>
    <edge id=":3614216323_0" function="internal">
        <lane id=":3614216323_0_0" index="0" disallow="tram rail_urban rail rail_electric rail_fast ship" speed="6.44" length="9.03" shape="825.72,1263.43 823.43,1262.45 821.40,1262.45 819.63,1263.44 818.11,1265.41"/>
    </edge>
    <edge id=":3614216323_1" function="internal">
        <lane id=":3614216323_1_0" index="0" disallow="tram rail_urban rail rail_electric rail_fast ship" speed="3.65" length="1.44" shape="825.72,1263.43 825.11,1262.12"/>
    </edge>
    <edge id=":3614216323_6" function="internal">
        <lane id=":3614216323_6_0" index="0" disallow="tram rail_urban rail rail_electric rail_fast ship" speed="3.65" length="3.23" shape="825.11,1262.12 825.18,1261.23 825.94,1260.76 827.38,1260.70"/>
    </edge>
    <edge id=":3614216323_2" function="internal">
        <lane id=":3614216323_2_0" index="0" disallow="tram rail_urban rail rail_electric rail_fast ship" speed="27.78" length="14.52" shape="814.95,1253.19 827.38,1260.70"/>
    </edge>
    <edge id=":3614216323_3" function="internal">
        <lane id=":3614216323_3_0" index="0" disallow="tram rail_urban rail rail_electric rail_fast ship" speed="8.11" length="10.52" shape="814.95,1253.19 817.97,1255.64 819.50,1258.49 819.55,1261.75 819.50,1261.88"/>
    </edge>
    <edge id=":3614216323_7" function="internal">
        <lane id=":3614216323_7_0" index="0" disallow="tram rail_urban rail rail_electric rail_fast ship" speed="8.11" length="3.80" shape="819.50,1261.88 818.11,1265.41"/>
    </edge>
    <edge id=":3614216323_4" function="internal">
        <lane id=":3614216323_4_0" index="0" disallow="tram rail_urban rail rail_electric rail_fast ship" speed="7.94" length="14.32" shape="815.32,1263.84 817.73,1260.71 820.54,1259.15 823.76,1259.14 827.38,1260.70"/>
    </edge>
    <edge id=":3614216323_5" function="internal">
        <lane id=":3614216323_5_0" index="0" disallow="tram rail_urban rail rail_electric rail_fast ship" speed="3.65" length="1.44" shape="815.32,1263.84 816.61,1263.19"/>
    </edge>
    <edge id=":3614216323_8" function="internal">
        <lane id=":3614216323_8_0" index="0" disallow="tram rail_urban rail rail_electric rail_fast ship" speed="3.65" length="3.23" shape="816.61,1263.19 817.50,1263.23 818.00,1263.97 818.11,1265.41"/>
    </edge>
    <edge id=":3614216324_0" function="internal">
        <lane id=":3614216324_0_0" index="0" disallow="tram rail_urban rail rail_electric rail_fast ship" speed="6.57" length="9.11" shape="942.20,1334.28 939.92,1333.32 937.87,1333.31 936.03,1334.27 934.41,1336.19"/>
    </edge>
    <edge id=":3614216324_1" function="internal">
        <lane id=":3614216324_1_0" index="0" disallow="tram rail_urban rail rail_electric rail_fast ship" speed="27.78" length="14.40" shape="942.20,1334.28 929.90,1326.79"/>
    </edge>
    <edge id=":3614216324_2" function="internal">
        <lane id=":3614216324_2_0" index="0" disallow="tram rail_urban rail rail_electric rail_fast ship" speed="3.65" length="1.44" shape="942.20,1334.28 941.59,1332.98"/>
    </edge>
    <edge id=":3614216324_9" function="internal">
        <lane id=":3614216324_9_0" index="0" disallow="tram rail_urban rail rail_electric rail_fast ship" speed="3.65" length="3.23" shape="941.59,1332.98 941.66,1332.09 942.42,1331.61 943.86,1331.55"/>
    </edge>
    <edge id=":3614216324_3" function="internal">
        <lane id=":3614216324_3_0" index="0" disallow="tram rail_urban rail rail_electric rail_fast ship" speed="27.78" length="14.40" shape="931.56,1324.06 943.86,1331.55"/>
    </edge>
    <edge id=":3614216324_4" function="internal">
        <lane id=":3614216324_4_0" index="0" disallow="tram rail_urban rail rail_electric rail_fast ship" speed="7.97" length="4.08" shape="931.56,1324.06 934.58,1326.55 934.66,1326.70"/>
    </edge>
    <edge id=":3614216324_5" function="internal">
        <lane id=":3614216324_5_0" index="0" disallow="tram rail_urban rail rail_electric rail_fast ship" speed="3.65" length="1.44" shape="931.56,1324.06 932.17,1325.37"/>
    </edge>
    <edge id=":3614216324_10" function="internal">
        <lane id=":3614216324_10_0" index="0" disallow="tram rail_urban rail rail_electric rail_fast ship" speed="7.97" length="10.17" shape="934.66,1326.70 936.06,1329.40 936.00,1332.61 934.41,1336.19"/>
    </edge>
    <edge id=":3614216324_11" function="internal">
        <lane id=":3614216324_11_0" index="0" disallow="tram rail_urban rail rail_electric rail_fast ship" speed="3.65" length="3.23" shape="932.17,1325.37 932.09,1326.26 931.34,1326.74 929.90,1326.79"/>
    </edge>
    <edge id=":3614216324_6" function="internal">
        <lane id=":3614216324_6_0" index="0" disallow="tram rail_urban rail rail_electric rail_fast ship" speed="6.47" length="9.03" shape="931.70,1334.48 932.71,1332.21 932.75,1330.18 931.81,1328.37 929.90,1326.79"/>
    </edge>
    <edge id=":3614216324_7" function="internal">
        <lane id=":3614216324_7_0" index="0" disallow="tram rail_urban rail rail_electric rail_fast ship" speed="8.05" length="14.21" shape="931.70,1334.48 934.22,1331.50 937.09,1330.01 940.30,1330.03 943.86,1331.55"/>
    </edge>
    <edge id=":3614216324_8" function="internal">
        <lane id=":3614216324_8_0" index="0" disallow="tram rail_urban rail rail_electric rail_fast ship" speed="3.65" length="4.67" shape="931.70,1334.48 933.02,1333.89 933.91,1333.98 934.37,1334.74 934.41,1336.19"/>
    </edge>
    <edge id=":3614216329_0" function="internal">
        <lane id=":3614216329_0_0" index="0" disallow="tram rail_urban rail rail_electric rail_fast ship" speed="6.11" length="7.81" shape="1292.58,1276.34 1291.60,1275.28 1291.37,1273.75 1291.88,1271.76 1293.15,1269.30"/>
    </edge>
    <edge id=":3614216329_1" function="internal">
        <lane id=":3614216329_1_0" index="0" disallow="tram rail_urban rail rail_electric rail_fast ship" speed="3.65" length="4.67" shape="1292.58,1276.34 1291.97,1275.03 1292.05,1274.14 1292.81,1273.67 1294.25,1273.61"/>
    </edge>
    <edge id=":3614216329_2" function="internal">
        <lane id=":3614216329_2_0" index="0" disallow="tram rail_urban rail rail_electric rail_fast ship" speed="13.41" length="9.47" shape="1285.56,1275.81 1290.41,1267.63"/>
        <lane id=":3614216329_2_1" index="1" disallow="tram rail_urban rail rail_electric rail_fast ship" speed="13.41" length="9.47" shape="1288.33,1277.41 1293.15,1269.30"/>
    </edge>
    <edge id=":3614216329_4" function="internal">
        <lane id=":3614216329_4_0" index="0" disallow="tram rail_urban rail rail_electric rail_fast ship" speed="6.05" length="7.83" shape="1288.33,1277.41 1289.89,1275.12 1291.40,1273.72 1292.85,1273.22 1294.25,1273.61"/>
    </edge>
    <edge id=":3614216332_0" function="internal">
        <lane id=":3614216332_0_0" index="0" disallow="tram rail_urban rail rail_electric rail_fast ship" speed="6.09" length="7.73" shape="1412.13,1075.19 1411.16,1074.18 1410.91,1072.68 1411.39,1070.68 1412.57,1068.19"/>
    </edge>
    <edge id=":3614216332_1" function="internal">
        <lane id=":3614216332_1_0" index="0" disallow="tram rail_urban rail rail_electric rail_fast ship" speed="3.65" length="4.67" shape="1412.13,1075.19 1411.49,1073.90 1411.54,1073.01 1412.29,1072.51 1413.73,1072.42"/>
    </edge>
    <edge id=":3614216332_2" function="internal">
        <lane id=":3614216332_2_0" index="0" disallow="tram rail_urban rail rail_electric rail_fast ship" speed="13.41" length="9.33" shape="1405.12,1074.64 1409.79,1066.61"/>
        <lane id=":3614216332_2_1" index="1" disallow="tram rail_urban rail rail_electric rail_fast ship" speed="13.41" length="9.33" shape="1407.87,1076.28 1412.57,1068.19"/>
    </edge>
    <edge id=":3614216332_4" function="internal">
        <lane id=":3614216332_4_0" index="0" disallow="tram rail_urban rail rail_electric rail_fast ship" speed="6.10" length="7.73" shape="1407.87,1076.28 1409.44,1074.02 1410.94,1072.62 1412.37,1072.09 1413.73,1072.42"/>
    </edge>
    <edge id=":3614216336_0" function="internal">