<?xml version="1.0" encoding="UTF-8"?>

<configuration xmlns:xsi="http://www.w3.org/2001/XMLSchema-instance" xsi:noNamespaceSchemaLocation="http://sumo.dlr.de/xsd/sumoConfiguration.xsd">
    <input>

        <!-- <net-file value='maps/citysample.net.xml'/>
        <route-files value='maps/citysample.rou.xml'/> -->
        <net-file value='C:\Users\kpanc\Desktop\Project 298\Smart Traffic Signal\Sjdt.net.xml'/> 
        <route-files value='C:\Users\kpanc\Desktop\Project 298\Smart Traffic Signal\Sjdt.rou.xml'/>

    </input>
    <time>
        <begin value='0'/>
        <end value='500'/>
    </time>

    <report>
        <verbose value="true"/>
        <no-step-log value="true"/>
    </report>
</configuration>

